obsolete_test_case/powerflow_test/37node/IEEE37-Dec17.glm
// $Id: IEEE37-Dec17.glm 4738 2014-07-03 00:55:39Z dchassin $
//	Copyright (C) 2008 Battelle Memorial Institute

clock {
	timestamp '2000-01-01 0:00:00';
	timezone EST+5EDT;
}

module powerflow;


// Phase Conductor for 721: 1,000,000 AA,CN
object underground_line_conductor:7210 { 
	 outer_diameter 1.980000;
	 conductor_gmr 0.036800;
	 conductor_diameter 1.150000;
	 conductor_resistance 0.105000;
	 neutral_gmr 0.003310;
	 neutral_resistance 5.903000;
	 neutral_diameter 0.102000;
	 neutral_strands 20.000000;
	 shield_gmr 0.000000;
	 shield_resistance 0.000000;
}

// Phase Conductor for 722: 500,000 AA,CN
object underground_line_conductor:7220 { 
	 outer_diameter 1.560000;
	 conductor_gmr 0.026000;
	 conductor_diameter 0.813000;
	 conductor_resistance 0.206000;
	 neutral_gmr 0.002620;
	 neutral_resistance 9.375000;
	 neutral_diameter 0.081000;
	 neutral_strands 16.000000;
	 shield_gmr 0.000000;
	 shield_resistance 0.000000;
}

// Phase Conductor for 723: 2/0 AA,CN
object underground_line_conductor:7230 { 
	 outer_diameter 1.100000;
	 conductor_gmr 0.012500;
	 conductor_diameter 0.414000;
	 conductor_resistance 0.769000;
	 neutral_gmr 0.002080;
	 neutral_resistance 14.872000;
	 neutral_diameter 0.064000;
	 neutral_strands 7.000000;
	 shield_gmr 0.000000;
	 shield_resistance 0.000000;
}

// Phase Conductor for 724: #2 AA,CN
object underground_line_conductor:7240 { 
	 outer_diameter 0.980000;
	 conductor_gmr 0.008830;
	 conductor_diameter 0.292000;
	 conductor_resistance 1.540000;
	 neutral_gmr 0.002080;
	 neutral_resistance 14.872000;
	 neutral_diameter 0.064000;
	 neutral_strands 6.000000;
	 shield_gmr 0.000000;
	 shield_resistance 0.000000;
}

// underground line spacing: spacing id 515 
object line_spacing:515 {
	 distance_AtoB 0.500000;
	 distance_BtoC 0.500000;
	 distance_AtoC 1.000000;
	 distance_AtoN 0.000000;
	 distance_BtoN 0.000000;
	 distance_CtoN 0.000000;
}

// line configurations:
 object line_configuration:7211 {
	 phaseA_conductor underground_line_conductor:7210;
	 phaseB_conductor underground_line_conductor:7210;
	 phaseC_conductor underground_line_conductor:7210;
	 line_spacing line_spacing:515;
}

 object line_configuration:7221 {
	 phaseA_conductor underground_line_conductor:7220;
	 phaseB_conductor underground_line_conductor:7220;
	 phaseC_conductor underground_line_conductor:7220;
	 line_spacing line_spacing:515;
}

 object line_configuration:7231 {
	 phaseA_conductor underground_line_conductor:7230;
	 phaseB_conductor underground_line_conductor:7230;
	 phaseC_conductor underground_line_conductor:7230;
	 line_spacing line_spacing:515;
}

 object line_configuration:7241 {
	 phaseA_conductor underground_line_conductor:7240;
	 phaseB_conductor underground_line_conductor:7240;
	 phaseC_conductor underground_line_conductor:7240;
	 line_spacing line_spacing:515;
}

// create line objects:
 object underground_line:701702 {
	 phases "ABC";
	 name 701-702;
	 from node:701;
	 to node:702;
	 length 960;
	 configuration line_configuration:7221;
}

 object underground_line:702705 {
	 phases "ABC";
	 name 702-705;
	 from node:702;
	 to node:705;
	 length 400;
	 configuration line_configuration:7241;
}

 object underground_line:702713 {
	 phases "ABC";
	 name 702-713;
	 from node:702;
	 to node:713;
	 length 360;
	 configuration line_configuration:7231;
}

 object underground_line:702703 {
	 phases "ABC";
	 name 702-703;
	 from node:702;
	 to node:703;
	 length 1320;
	 configuration line_configuration:7221;
}

 object underground_line:703727 {
	 phases "ABC";
	 name 703-727;
	 from node:703;
	 to node:727;
	 length 240;
	 configuration line_configuration:7241;
}

 object underground_line:703730 {
	 phases "ABC";
	 name 703-730;
	 from node:703;
	 to node:730;
	 length 600;
	 configuration line_configuration:7231;
}

 object underground_line:704714 {
	 phases "ABC";
	 name 704-714;
	 from node:704;
	 to node:714;
	 length 80;
	 configuration line_configuration:7241;
}

 object underground_line:704720 {
	 phases "ABC";
	 name 704-720;
	 from node:704;
	 to node:720;
	 length 800;
	 configuration line_configuration:7231;
}

 object underground_line:705742 {
	 phases "ABC";
	 name 705-742;
	 from node:705;
	 to node:742;
	 length 320;
	 configuration line_configuration:7241;
}

 object underground_line:705712 {
	 phases "ABC";
	 name 705-712;
	 from node:705;
	 to node:712;
	 length 240;
	 configuration line_configuration:7241;
}

 object underground_line:706725 {
	 phases "ABC";
	 name 706-725;
	 from node:706;
	 to node:725;
	 length 280;
	 configuration line_configuration:7241;
}

 object underground_line:707724 {
	 phases "ABC";
	 name 707-724;
	 from node:707;
	 to node:724;
	 length 760;
	 configuration line_configuration:7241;
}

 object underground_line:707722 {
	 phases "ABC";
	 name 707-722;
	 from node:707;
	 to node:722;
	 length 120;
	 configuration line_configuration:7241;
}

 object underground_line:708733 {
	 phases "ABC";
	 name 708-733;
	 from node:708;
	 to node:733;
	 length 320;
	 configuration line_configuration:7231;
}

 object underground_line:708732 {
	 phases "ABC";
	 name 708-732;
	 from node:708;
	 to node:732;
	 length 320;
	 configuration line_configuration:7241;
}

 object underground_line:709731 {
	 phases "ABC";
	 name 709-731;
	 from node:709;
	 to node:731;
	 length 600;
	 configuration line_configuration:7231;
}

 object underground_line:709708 {
	 phases "ABC";
	 name 709-708;
	 from node:709;
	 to node:708;
	 length 320;
	 configuration line_configuration:7231;
}

 object underground_line:710735 {
	 phases "ABC";
	 name 710-735;
	 from node:710;
	 to node:735;
	 length 200;
	 configuration line_configuration:7241;
}

 object underground_line:710736 {
	 phases "ABC";
	 name 710-736;
	 from node:710;
	 to node:736;
	 length 1280;
	 configuration line_configuration:7241;
}

 object underground_line:711741 {
	 phases "ABC";
	 name 711-741;
	 from node:711;
	 to node:741;
	 length 400;
	 configuration line_configuration:7231;
}

 object underground_line:711740 {
	 phases "ABC";
	 name 711-740;
	 from node:711;
	 to node:740;
	 length 200;
	 configuration line_configuration:7241;
}

 object underground_line:713704 {
	 phases "ABC";
	 name 713-704;
	 from node:713;
	 to node:704;
	 length 520;
	 configuration line_configuration:7231;
}

 object underground_line:714718 {
	 phases "ABC";
	 name 714-718;
	 from node:714;
	 to node:718;
	 length 520;
	 configuration line_configuration:7241;
}

 object underground_line:720707 {
	 phases "ABC";
	 name 720-707;
	 from node:720;
	 to node:707;
	 length 920;
	 configuration line_configuration:7241;
}

 object underground_line:720706 {
	 phases "ABC";
	 name 720-706;
	 from node:720;
	 to node:706;
	 length 600;
	 configuration line_configuration:7231;
}

 object underground_line:727744 {
	 phases "ABC";
	 name 727-744;
	 from node:727;
	 to node:744;
	 length 280;
	 configuration line_configuration:7231;
}

 object underground_line:730709 {
	 phases "ABC";
	 name 730-709;
	 from node:730;
	 to node:709;
	 length 200;
	 configuration line_configuration:7231;
}

 object underground_line:733734 {
	 phases "ABC";
	 name 733-734;
	 from node:733;
	 to node:734;
	 length 560;
	 configuration line_configuration:7231;
}

 object underground_line:734737 {
	 phases "ABC";
	 name 734-737;
	 from node:734;
	 to node:737;
	 length 640;
	 configuration line_configuration:7231;
}

 object underground_line:734710 {
	 phases "ABC";
	 name 734-710;
	 from node:734;
	 to node:710;
	 length 520;
	 configuration line_configuration:7241;
}

 object underground_line:737738 {
	 phases "ABC";
	 name 737-738;
	 from node:737;
	 to node:738;
	 length 400;
	 configuration line_configuration:7231;
}

 object underground_line:738711 {
	 phases "ABC";
	 name 738-711;
	 from node:738;
	 to node:711;
	 length 400;
	 configuration line_configuration:7231;
}

 object underground_line:744728 {
	 phases "ABC";
	 name 744-728;
	 from node:744;
	 to node:728;
	 length 200;
	 configuration line_configuration:7241;
}

 object underground_line:744729 {
	 phases "ABC";
	 name 744-729;
	 from node:744;
	 to node:729;
	 length 280;
	 configuration line_configuration:7241;
}

 object underground_line:781701 {
	 phases "ABC";
	 name 781-701;
	 from node:781;
	 to node:701;
	 length 1850;
	 configuration line_configuration:7211;
}

// create load-line objects:
 object underground_line:701801 {
	 phases "ABC";
	 name 701-801;
	 from node:701;
	 to load:801;
	 length 0;
	 configuration line_configuration:7211;
}

 object underground_line:712812 {
	 phases "ABC";
	 name 712-812;
	 from node:712;
	 to load:812;
	 length 0;
	 configuration line_configuration:7211;
}

 object underground_line:713813 {
	 phases "ABC";
	 name 713-813;
	 from node:713;
	 to load:813;
	 length 0;
	 configuration line_configuration:7211;
}

 object underground_line:714814 {
	 phases "ABC";
	 name 714-814;
	 from node:714;
	 to load:814;
	 length 0;
	 configuration line_configuration:7211;
}

 object underground_line:718818 {
	 phases "ABC";
	 name 718-818;
	 from node:718;
	 to load:818;
	 length 0;
	 configuration line_configuration:7211;
}

 object underground_line:720820 {
	 phases "ABC";
	 name 720-820;
	 from node:720;
	 to load:820;
	 length 0;
	 configuration line_configuration:7211;
}

 object underground_line:722822 {
	 phases "ABC";
	 name 722-822;
	 from node:722;
	 to load:822;
	 length 0;
	 configuration line_configuration:7211;
}

 object underground_line:724824 {
	 phases "ABC";
	 name 724-824;
	 from node:724;
	 to load:824;
	 length 0;
	 configuration line_configuration:7211;
}

 object underground_line:725825 {
	 phases "ABC";
	 name 725-825;
	 from node:725;
	 to load:825;
	 length 0;
	 configuration line_configuration:7211;
}

 object underground_line:727827 {
	 phases "ABC";
	 name 727-827;
	 from node:727;
	 to load:827;
	 length 0;
	 configuration line_configuration:7211;
}

 object underground_line:728828 {
	 phases "ABC";
	 name 728-828;
	 from node:728;
	 to load:828;
	 length 0;
	 configuration line_configuration:7211;
}

 object underground_line:729829 {
	 phases "ABC";
	 name 729-829;
	 from node:729;
	 to load:829;
	 length 0;
	 configuration line_configuration:7211;
}

 object underground_line:730830 {
	 phases "ABC";
	 name 730-830;
	 from node:730;
	 to load:830;
	 length 0;
	 configuration line_configuration:7211;
}

 object underground_line:731831 {
	 phases "ABC";
	 name 731-831;
	 from node:731;
	 to load:831;
	 length 0;
	 configuration line_configuration:7211;
}

 object underground_line:732832 {
	 phases "ABC";
	 name 732-832;
	 from node:732;
	 to load:832;
	 length 0;
	 configuration line_configuration:7211;
}

 object underground_line:733833 {
	 phases "ABC";
	 name 733-833;
	 from node:733;
	 to load:833;
	 length 0;
	 configuration line_configuration:7211;
}

 object underground_line:734834 {
	 phases "ABC";
	 name 734-834;
	 from node:734;
	 to load:834;
	 length 0;
	 configuration line_configuration:7211;
}

 object underground_line:735835 {
	 phases "ABC";
	 name 735-835;
	 from node:735;
	 to load:835;
	 length 0;
	 configuration line_configuration:7211;
}

 object underground_line:736836 {
	 phases "ABC";
	 name 736-836;
	 from node:736;
	 to load:836;
	 length 0;
	 configuration line_configuration:7211;
}

 object underground_line:737837 {
	 phases "ABC";
	 name 737-837;
	 from node:737;
	 to load:837;
	 length 0;
	 configuration line_configuration:7211;
}

 object underground_line:738838 {
	 phases "ABC";
	 name 738-838;
	 from node:738;
	 to load:838;
	 length 0;
	 configuration line_configuration:7211;
}

 object underground_line:740840 {
	 phases "ABC";
	 name 740-840;
	 from node:740;
	 to load:840;
	 length 0;
	 configuration line_configuration:7211;
}

 object underground_line:741841 {
	 phases "ABC";
	 name 741-841;
	 from node:741;
	 to load:841;
	 length 0;
	 configuration line_configuration:7211;
}

 object underground_line:742842 {
	 phases "ABC";
	 name 742-842;
	 from node:742;
	 to load:842;
	 length 0;
	 configuration line_configuration:7211;
}

 object underground_line:744844 {
	 phases "ABC";
	 name 744-844;
	 from node:744;
	 to load:844;
	 length 0;
	 configuration line_configuration:7211;
}
// END of line

//###############regulator################
 object regulator_configuration:7997810 {
 		connect_type 2;
 		band_center 120.0;
 		band_width 2.0;
 		time_delay 30.0;
 		raise_taps 16;
 		lower_taps 16;
 		CT_ratio 350;
 		PT_ratio 40;
 		ldc_R_V 1.5;
 		ldc_X_V 3.0;
 		CT_phase "ABC";
 		PT_phase "ABC";
 		regulation 0.10;
 		V_high 120.0;
// 		tap_pos[0] 7;
// 		tap_pos[1] 4;
// 		tap_pos[2] 0;
}

object regulator:799781 {
	 phases "ABC";
	 from node:799;
	 to node:781;
	 configuration regulator_configuration:7997810;
}
//###########################################


// create node and load objects:

 object node:701 {
	 phases "ABC";
	 name 701;
	 voltage_A 2400.000000 -1385.640646j;
	 voltage_B -2400.000000 -1385.640646j;
	 voltage_C 0.000000+2771.281292j;
}

 object node:702 {
	 phases "ABC";
	 name 702;
	 voltage_A 2400.000000 -1385.640646j;
	 voltage_B -2400.000000 -1385.640646j;
	 voltage_C 0.000000+2771.281292j;
}

 object node:703 {
	 phases "ABC";
	 name 703;
	 voltage_A 2400.000000 -1385.640646j;
	 voltage_B -2400.000000 -1385.640646j;
	 voltage_C 0.000000+2771.281292j;
}

 object node:704 {
	 phases "ABC";
	 name 704;
	 voltage_A 2400.000000 -1385.640646j;
	 voltage_B -2400.000000 -1385.640646j;
	 voltage_C 0.000000+2771.281292j;
}

 object node:705 {
	 phases "ABC";
	 name 705;
	 voltage_A 2400.000000 -1385.640646j;
	 voltage_B -2400.000000 -1385.640646j;
	 voltage_C 0.000000+2771.281292j;
}

 object node:706 {
	 phases "ABC";
	 name 706;
	 voltage_A 2400.000000 -1385.640646j;
	 voltage_B -2400.000000 -1385.640646j;
	 voltage_C 0.000000+2771.281292j;
}

 object node:707 {
	 phases "ABC";
	 name 707;
	 voltage_A 2400.000000 -1385.640646j;
	 voltage_B -2400.000000 -1385.640646j;
	 voltage_C 0.000000+2771.281292j;
}

 object node:708 {
	 phases "ABC";
	 name 708;
	 voltage_A 2400.000000 -1385.640646j;
	 voltage_B -2400.000000 -1385.640646j;
	 voltage_C 0.000000+2771.281292j;
}

 object node:709 {
	 phases "ABC";
	 name 709;
	 voltage_A 2400.000000 -1385.640646j;
	 voltage_B -2400.000000 -1385.640646j;
	 voltage_C 0.000000+2771.281292j;
}

 object node:710 {
	 phases "ABC";
	 name 710;
	 voltage_A 2400.000000 -1385.640646j;
	 voltage_B -2400.000000 -1385.640646j;
	 voltage_C 0.000000+2771.281292j;
}

 object node:711 {
	 phases "ABC";
	 name 711;
	 voltage_A 2400.000000 -1385.640646j;
	 voltage_B -2400.000000 -1385.640646j;
	 voltage_C 0.000000+2771.281292j;
}

 object node:712 {
	 phases "ABC";
	 name 712;
	 voltage_A 2400.000000 -1385.640646j;
	 voltage_B -2400.000000 -1385.640646j;
	 voltage_C 0.000000+2771.281292j;
}

 object node:713 {
	 phases "ABC";
	 name 713;
	 voltage_A 2400.000000 -1385.640646j;
	 voltage_B -2400.000000 -1385.640646j;
	 voltage_C 0.000000+2771.281292j;
}

 object node:714 {
	 phases "ABC";
	 name 714;
	 voltage_A 2400.000000 -1385.640646j;
	 voltage_B -2400.000000 -1385.640646j;
	 voltage_C 0.000000+2771.281292j;
}

 object node:718 {
	 phases "ABC";
	 name 718;
	 voltage_A 2400.000000 -1385.640646j;
	 voltage_B -2400.000000 -1385.640646j;
	 voltage_C 0.000000+2771.281292j;
}

 object node:720 {
	 phases "ABC";
	 name 720;
	 voltage_A 2400.000000 -1385.640646j;
	 voltage_B -2400.000000 -1385.640646j;
	 voltage_C 0.000000+2771.281292j;
}

 object node:722 {
	 phases "ABC";
	 name 722;
	 voltage_A 2400.000000 -1385.640646j;
	 voltage_B -2400.000000 -1385.640646j;
	 voltage_C 0.000000+2771.281292j;
}

 object node:724 {
	 phases "ABC";
	 name 724;
	 voltage_A 2400.000000 -1385.640646j;
	 voltage_B -2400.000000 -1385.640646j;
	 voltage_C 0.000000+2771.281292j;
}

 object node:725 {
	 phases "ABC";
	 name 725;
	 voltage_A 2400.000000 -1385.640646j;
	 voltage_B -2400.000000 -1385.640646j;
	 voltage_C 0.000000+2771.281292j;
}

 object node:727 {
	 phases "ABC";
	 name 727;
	 voltage_A 2400.000000 -1385.640646j;
	 voltage_B -2400.000000 -1385.640646j;
	 voltage_C 0.000000+2771.281292j;
}

 object node:728 {
	 phases "ABC";
	 name 728;
	 voltage_A 2400.000000 -1385.640646j;
	 voltage_B -2400.000000 -1385.640646j;
	 voltage_C 0.000000+2771.281292j;
}

 object node:729 {
	 phases "ABC";
	 name 729;
	 voltage_A 2400.000000 -1385.640646j;
	 voltage_B -2400.000000 -1385.640646j;
	 voltage_C 0.000000+2771.281292j;
}

 object node:730 {
	 phases "ABC";
	 name 730;
	 voltage_A 2400.000000 -1385.640646j;
	 voltage_B -2400.000000 -1385.640646j;
	 voltage_C 0.000000+2771.281292j;
}

 object node:731 {
	 phases "ABC";
	 name 731;
	 voltage_A 2400.000000 -1385.640646j;
	 voltage_B -2400.000000 -1385.640646j;
	 voltage_C 0.000000+2771.281292j;
}

 object node:732 {
	 phases "ABC";
	 name 732;
	 voltage_A 2400.000000 -1385.640646j;
	 voltage_B -2400.000000 -1385.640646j;
	 voltage_C 0.000000+2771.281292j;
}

 object node:733 {
	 phases "ABC";
	 name 733;
	 voltage_A 2400.000000 -1385.640646j;
	 voltage_B -2400.000000 -1385.640646j;
	 voltage_C 0.000000+2771.281292j;
}

 object node:734 {
	 phases "ABC";
	 name 734;
	 voltage_A 2400.000000 -1385.640646j;
	 voltage_B -2400.000000 -1385.640646j;
	 voltage_C 0.000000+2771.281292j;
}

 object node:735 {
	 phases "ABC";
	 name 735;
	 voltage_A 2400.000000 -1385.640646j;
	 voltage_B -2400.000000 -1385.640646j;
	 voltage_C 0.000000+2771.281292j;
}

 object node:736 {
	 phases "ABC";
	 name 736;
	 voltage_A 2400.000000 -1385.640646j;
	 voltage_B -2400.000000 -1385.640646j;
	 voltage_C 0.000000+2771.281292j;
}

 object node:737 {
	 phases "ABC";
	 name 737;
	 voltage_A 2400.000000 -1385.640646j;
	 voltage_B -2400.000000 -1385.640646j;
	 voltage_C 0.000000+2771.281292j;
}

 object node:738 {
	 phases "ABC";
	 name 738;
	 voltage_A 2400.000000 -1385.640646j;
	 voltage_B -2400.000000 -1385.640646j;
	 voltage_C 0.000000+2771.281292j;
}

 object node:740 {
	 phases "ABC";
	 name 740;
	 voltage_A 2400.000000 -1385.640646j;
	 voltage_B -2400.000000 -1385.640646j;
	 voltage_C 0.000000+2771.281292j;
}

 object node:741 {
	 phases "ABC";
	 name 741;
	 voltage_A 2400.000000 -1385.640646j;
	 voltage_B -2400.000000 -1385.640646j;
	 voltage_C 0.000000+2771.281292j;
}

 object node:742 {
	 phases "ABC";
	 name 742;
	 voltage_A 2400.000000 -1385.640646j;
	 voltage_B -2400.000000 -1385.640646j;
	 voltage_C 0.000000+2771.281292j;
}

 object node:744 {
	 phases "ABC";
	 name 744;
	 voltage_A 2400.000000 -1385.640646j;
	 voltage_B -2400.000000 -1385.640646j;
	 voltage_C 0.000000+2771.281292j;
}

// object node:775 {
//	 phases "ABC";
//	 name 775;
//	 voltage_A 240.000000 -138.564065j;
//	 voltage_B -240.000000 -138.564065j;
//	 voltage_C -0.000000+277.128129j;
//}


 object node:781 {
	 phases "ABC";
	 name 781;
	 voltage_A 2400.000000 -1385.640646j;
	 voltage_B -2400.000000 -1385.640646j;
	 voltage_C 0.000000+2771.281292j;
}

 object node:799 {
	 phases "ABC";
	 name 799;
	 voltage_A 2400.000000 -1385.640646j;
	 voltage_B -2400.000000 -1385.640646j;
	 voltage_C 0.000000+2771.281292j;
}

 object load:801 {
	 phases "ABCD";
	 name 801;
	 voltage_A 2400.000000 -1385.640646j;
	 voltage_B -2400.000000 -1385.640646j;
	 voltage_C 0.000000+2771.281292j;
	 voltage_BC 140000.000000+70000.000000j;
	 voltage_AB 140000.000000+70000.000000j;
	 voltage_CA 350000.000000+175000.000000j;
}

 object load:812 {
	 phases "ABCD";
	 name 812;
	 voltage_A 2400.000000 -1385.640646j;
	 voltage_B -2400.000000 -1385.640646j;
	 voltage_C 0.000000+2771.281292j;
	 voltage_CA 85000.000000+40000.000000j;
}

 object load:813 {
	 phases "ABCD";
	 name 813;
	 voltage_A 2400.000000 -1385.640646j;
	 voltage_B -2400.000000 -1385.640646j;
	 voltage_C 0.000000+2771.281292j;
	 voltage_CA 85000.000000+40000.000000j;
}

 object load:814 {
	 phases "ABCD";
	 name 814;
	 voltage_A 2400.000000 -1385.640646j;
	 voltage_B -2400.000000 -1385.640646j;
	 voltage_C 0.000000+2771.281292j;
	 current_A 3.541667 -1.666667j;
	 current_B -3.991720 -2.747194j;
}

 object load:818 {
	 phases "ABCD";
	 name 818;
	 voltage_A 2400.000000 -1385.640646j;
	 voltage_B -2400.000000 -1385.640646j;
	 voltage_C 0.000000+2771.281292j;
	 shunt_A 221.915014+104.430595j Ohm;
}

 object load:820 {
	 phases "ABCD";
	 name 820;
	 voltage_A 2400.000000 -1385.640646j;
	 voltage_B -2400.000000 -1385.640646j;
	 voltage_C 0.000000+2771.281292j;
	 voltage_CA 85000.000000+40000.000000j;
}

 object load:822 {
	 phases "ABCD";
	 name 822;
	 voltage_A 2400.000000 -1385.640646j;
	 voltage_B -2400.000000 -1385.640646j;
	 voltage_C 0.000000+2771.281292j;
	 current_B -27.212870 -17.967408j;
	 current_C -0.383280+4.830528j;
}

 object load:824 {
	 phases "ABCD";
	 name 824;
	 voltage_A 2400.000000 -1385.640646j;
	 voltage_B -2400.000000 -1385.640646j;
	 voltage_C 0.000000+2771.281292j;
	 shunt_B 438.857143+219.428571j Ohm;
}

 object load:825 {
	 phases "ABCD";
	 name 825;
	 voltage_A 2400.000000 -1385.640646j;
	 voltage_B -2400.000000 -1385.640646j;
	 voltage_C 0.000000+2771.281292j;
	 voltage_AB 42000.000000+21000.000000j;
}

 object load:827 {
	 phases "ABCD";
	 name 827;
	 voltage_A 2400.000000 -1385.640646j;
	 voltage_B -2400.000000 -1385.640646j;
	 voltage_C 0.000000+2771.281292j;
	 voltage_CA 42000.000000+21000.000000j;
}

 object load:828 {
	 phases "ABCD";
	 name 828;
	 voltage_A 2400.000000 -1385.640646j;
	 voltage_B -2400.000000 -1385.640646j;
	 voltage_C 0.000000+2771.281292j;
	 voltage_BC 42000.000000+21000.000000j;
	 voltage_AB 42000.000000+21000.000000j;
	 voltage_CA 42000.000000+21000.000000j;
}

 object load:829 {
	 phases "ABCD";
	 name 829;
	 voltage_A 2400.000000 -1385.640646j;
	 voltage_B -2400.000000 -1385.640646j;
	 voltage_C 0.000000+2771.281292j;
	 current_A 8.750000 -4.375000j;
}

 object load:830 {
	 phases "ABCD";
	 name 830;
	 voltage_A 2400.000000 -1385.640646j;
	 voltage_B -2400.000000 -1385.640646j;
	 voltage_C 0.000000+2771.281292j;
	 shunt_C 221.915014+104.430595j Ohm;
}

 object load:831 {
	 phases "ABCD";
	 name 831;
	 voltage_A 2400.000000 -1385.640646j;
	 voltage_B -2400.000000 -1385.640646j;
	 voltage_C 0.000000+2771.281292j;
	 shunt_B 221.915014+104.430595j Ohm;
}

 object load:832 {
	 phases "ABCD";
	 name 832;
	 voltage_A 2400.000000 -1385.640646j;
	 voltage_B -2400.000000 -1385.640646j;
	 voltage_C 0.000000+2771.281292j;
	 voltage_CA 42000.000000+21000.000000j;
}

 object load:833 {
	 phases "ABCD";
	 name 833;
	 voltage_A 2400.000000 -1385.640646j;
	 voltage_B -2400.000000 -1385.640646j;
	 voltage_C 0.000000+2771.281292j;
	 current_A 17.708333 -8.333333j;
}

 object load:834 {
	 phases "ABCD";
	 name 834;
	 voltage_A 2400.000000 -1385.640646j;
	 voltage_B -2400.000000 -1385.640646j;
	 voltage_C 0.000000+2771.281292j;
	 voltage_CA 42000.000000+21000.000000j;
}

 object load:835 {
	 phases "ABCD";
	 name 835;
	 voltage_A 2400.000000 -1385.640646j;
	 voltage_B -2400.000000 -1385.640646j;
	 voltage_C 0.000000+2771.281292j;
	 voltage_CA 85000.000000+40000.000000j;
}

 object load:836 {
	 phases "ABCD";
	 name 836;
	 voltage_A 2400.000000 -1385.640646j;
	 voltage_B -2400.000000 -1385.640646j;
	 voltage_C 0.000000+2771.281292j;
	 shunt_B 438.857143+219.428571j Ohm;
}

 object load:837 {
	 phases "ABCD";
	 name 837;
	 voltage_A 2400.000000 -1385.640646j;
	 voltage_B -2400.000000 -1385.640646j;
	 voltage_C 0.000000+2771.281292j;
	 current_A 29.166667 -14.583333j;
}

 object load:838 {
	 phases "ABCD";
	 name 838;
	 voltage_A 2400.000000 -1385.640646j;
	 voltage_B -2400.000000 -1385.640646j;
	 voltage_C 0.000000+2771.281292j;
	 voltage_AB 126000.000000+62000.000000j;
}

 object load:840 {
	 phases "ABCD";
	 name 840;
	 voltage_A 2400.000000 -1385.640646j;
	 voltage_B -2400.000000 -1385.640646j;
	 voltage_C 0.000000+2771.281292j;
	 voltage_CA 85000.000000+40000.000000j;
}

 object load:841 {
	 phases "ABCD";
	 name 841;
	 voltage_A 2400.000000 -1385.640646j;
	 voltage_B -2400.000000 -1385.640646j;
	 voltage_C 0.000000+2771.281292j;
	 current_C -0.586139+9.765222j;
}

 object load:842 {
	 phases "ABCD";
	 name 842;
	 voltage_A 2400.000000 -1385.640646j;
	 voltage_B -2400.000000 -1385.640646j;
	 voltage_C 0.000000+2771.281292j;
	 shunt_A 2304.000000+1152.000000j Ohm;
	 shunt_B 221.915014+104.430595j Ohm;
}

 object load:844 {
	 phases "ABCD";
	 name 844;
	 voltage_A 2400.000000 -1385.640646j;
	 voltage_B -2400.000000 -1385.640646j;
	 voltage_C 0.000000+2771.281292j;
	 voltage_AB 42000.000000+21000.000000j;
}
